LTspice 24.0.12 for Windows
Circuit: * C:\Users\Sorteito\Documents\Lab1-Circuitos\Lab1\Draft3.asc
Start Time: Mon Jun  2 01:17:01 2025
solver = Normal
Maximum thread count: 8
tnom = 27
temp = 27
method = modified trap
Direct Newton iteration for .op point succeeded.
Total elapsed time: 0.088 seconds.

