Circuit: * C:\Users\stari\Documents\Lab1-Circuitos\Draft2.asc

Early termination of direct N-R iteration.
Direct Newton iteration failed to find .op point.  (Use ".option noopiter" to skip.)
Starting Gmin stepping
Increasing initial diagonal Gmin to 100
Increasing initial diagonal Gmin to 1000
Gmin = 1000
vernier = 0.5
vernier = 0.25
vernier = 0.125
vernier = 0.0625
Gmin = 836.601
vernier = 0.03125
vernier = 0.015625
vernier = 0.0078125
vernier = 0.00390625
Gmin = 822.125
vernier = 0.00195313
vernier = 0.000976563
vernier = 0.000488281
Gmin = 0
Gmin = 0
Gmin stepping failed

Starting source stepping with srcstepmethod=0
Source Step = 3.0303%
Source Step = 33.3333%
Source Step = 63.6364%
Source Step = 93.9394%
Source stepping succeeded in finding the operating point.


Date: Sun May 04 20:00:05 2025
Total elapsed time: 0.449 seconds.

tnom = 27
temp = 27
method = trap
totiter = 1842
traniter = 0
tranpoints = 0
accept = 0
rejected = 0
matrix size = 410
fillins = 976
solver = Normal
Matrix Compiler1:    3864 opcodes
Matrix Compiler2: 51.26 KB object code size  5.6/4.3/[1.7]


