LTspice 24.0.12 for Windows
Circuit: * C:\Users\Sorteito\Documents\Facultad\Lab1-Circuitos\Lab3\Draft1.asc
Start Time: Sat Jun 14 19:41:46 2025
solver = Normal
Maximum thread count: 8
tnom = 27
temp = 27
method = modified trap
Direct Newton iteration for .op point succeeded.
Total elapsed time: 31.359 seconds.

