Circuit: * C:\Users\stari\Downloads\Funte\Funte\Estabilizador 5 V.asc

Direct Newton iteration failed to find .op point.  (Use ".option noopiter" to skip.)
Starting Gmin stepping
Gmin = 10
Gmin = 1.07374
Gmin = 0.115292
Gmin = 0.0123794
Gmin = 0.00132923
Gmin = 0.000142725
Gmin = 1.5325e-005
Gmin = 1.6455e-006
Gmin = 1.76685e-007
Gmin = 1.89714e-008
Gmin = 2.03704e-009
Gmin = 2.18725e-010
Gmin = 2.34854e-011
Gmin = 2.52173e-012
Gmin = 2.70769e-013
Gmin = 0
Gmin stepping succeeded in finding the operating point.

.step cap=1e-009
.step cap=1.01e-007
.step cap=2.01e-007
.step cap=3.01e-007
.step cap=4.01e-007
.step cap=5.01e-007
.step cap=6.01e-007
.step cap=7.01e-007
.step cap=8.01e-007
.step cap=9.01e-007
.step cap=1e-006

Date: Sun Jun 22 17:48:38 2025
Total elapsed time: 2.487 seconds.

tnom = 27
temp = 27
method = trap
totiter = 572
traniter = 0
tranpoints = 0
accept = 0
rejected = 0
matrix size = 156
fillins = 119
solver = Normal
Matrix Compiler1:     993 opcodes
Matrix Compiler2: 15.74 KB object code size  1.2/1.7/[1.0]


