LTspice 24.0.12 for Windows
Circuit: * C:\Users\Sorteito\Downloads\Lab1-Circuitos\Lab1-Circuitos\fuente_corriente\Draft1.asc
Start Time: Fri May  9 18:11:29 2025
solver = Normal
Maximum thread count: 8
tnom = 27
temp = 27
method = modified trap
Direct Newton iteration for .op point succeeded.
Total elapsed time: 0.206 seconds.

